tools/golden/report_decks/dump_capacitor.dss
// PHASE8_PLAN WP8.5 Dump step 3 fixture: the Capacitor DumpProperties
// override, isolated because of a proven upstream bug: this dss_capi
// version's TCapacitorObj.DumpProperties (Capacitor.pas:751) renders
// ASLR-dependent garbage (uninitialized-memory denormals, different in
// every oracle process) in exactly three lines - `~ CMatrix=(...)`,
// `~ FaultRate=`, `~ pctPerm=` - for EVERY capacitor, matrix-spec or not
// (probe-proven 2026-07-05, two-process diff). Per the known-upstream-bug
// rule (CLAUDE.md): a nondeterministic garbage read is NOT reproduced -
// the Rust port renders the correct property values; the golden for this
// deck is captured and compared with those three lines DROPPED on both
// sides, and the divergence is documented in investigations/.
clear
Set DefaultBaseFrequency=60

new circuit.dmpc basekv=12.47 pu=1.0 phases=3 bus1=src
~ r1=0.4 x1=1.6 r0=1.2 x0=4.2

new linecode.lc nphases=3 r1=0.301 x1=0.667 r0=0.882 x0=2.041 c1=3.4 c0=1.6
~ units=km

new line.l1 bus1=src bus2=b1 linecode=lc length=1.0 units=km

new capacitor.cm1 bus1=b1 phases=3
~ cmatrix=[3.2 -0.9 -0.3 | -0.5 3.5 -0.7 | -0.4 -1.1 3.1]
new capacitor.cs1 bus1=b1 phases=3 kvar=100 kv=12.47 numsteps=2
~ states=[1 0]

new load.ld1 bus1=b1 phases=3 conn=wye model=1 kv=12.47 kw=300 pf=0.92

set voltagebases=[12.47]
calcvoltagebases
Set maxiterations=100
solve
